*Heading
** Job name: triangle Model name: Inco_medium_1_2500_440
** Generated by: Abaqus/CAE 2023
*Preprint, echo=NO, model=NO, history=NO, contact=NO
**
** PARTS
**
*Part, name=Disk
*Node
      1, 0.00789999962,           0.
      2, 0.00789999962, 0.00100000005
      3, 0.00499999989, 0.00100000005
      4, 0.00499999989,           0.
      5, 0.0108000003,           0.
      6, 0.0108000003, 0.00100000005
      7,       0.0137,           0.
      8,       0.0137, 0.00100000005
      9, 0.0165999997,           0.
     10, 0.0165999997, 0.00100000005
     11, 0.0195000004,           0.
     12, 0.0195000004, 0.00100000005
     13, 0.0223999992,           0.
     14, 0.0223999992, 0.00100000005
     15, 0.0252999999,           0.
     16, 0.0252999999, 0.00100000005
     17, 0.0282000005,           0.
     18, 0.0282000005, 0.00100000005
     19, 0.0310999993,           0.
     20, 0.0310999993, 0.00100000005
** ... 313 like lines cut
*Element, type=CPS3
 1,   1, 103, 274
 2, 274, 116,   1
 3, 103,   2, 104
 4, 104, 274, 103
 5, 116, 274, 275
 6, 275, 115, 116
 7, 274, 104, 105
 8, 105, 275, 274
 9, 115, 275, 276
10, 276, 114, 115
11, 275, 105, 106
12, 106, 276, 275
13, 114, 276, 277
14, 277, 113, 114
15, 276, 106, 107
16, 107, 277, 276
17, 113, 277, 278
18, 278, 112, 113
19, 277, 107, 108
20, 108, 278, 277
** ... 420 like lines cut
*Nset, nset=Left
   3,   4, 110
*Elset, elset=Left
 26, 28
*Nset, nset=Right
  99, 100, 262
*Elset, elset=Right
 422, 424
*Nset, nset=Bottom
   1,   4,   5,   7,   9,  11,  13,  15,  17,  19,  21,  23,  25,  27,  29,  31
  33,  35,  37,  39,  41,  43,  45,  47,  49,  51,  53,  55,  57,  59,  61,  63
  65,  67,  69,  71,  73,  75,  77,  79,  81,  83,  85,  87,  89,  91,  93,  95
  98,  99, 101, 111, 112, 113, 114, 115, 116, 119, 120, 125, 126, 131, 132, 137
 138, 143, 144, 149, 150, 155, 156, 161, 162, 167, 168, 173, 174, 179, 180, 185
 186, 191, 192, 197, 198, 203, 204, 209, 210, 215, 216, 221, 222, 227, 228, 233
 234, 239, 240, 245, 246, 251, 252, 256, 257, 258, 259, 260, 261, 271, 272
*Elset, elset=Bottom
   2,   6,  10,  14,  18,  22,  26,  30,  34,  39,  43,  46,  50,  55,  59,  62
  66,  71,  75,  78,  82,  87,  91,  94,  98, 103, 107, 110, 114, 119, 123, 126
 130, 135, 139, 142, 146, 151, 155, 158, 162, 167, 171, 174, 178, 183, 187, 190
 194, 199, 203, 206, 210, 215, 219, 222, 226, 231, 235, 238, 242, 247, 251, 254
 258, 263, 267, 270, 274, 279, 283, 286, 290, 295, 299, 302, 306, 311, 315, 318
 322, 327, 331, 334, 338, 343, 347, 350, 354, 359, 363, 366, 370, 375, 379, 382
 386, 391, 395, 399, 403, 407, 411, 415, 419, 423, 426, 430, 435, 439
*Nset, nset=All, generate
   1,  333,    1
*Elset, elset=All, generate
   1,  440,    1
** Section: Sec_Inco
*Solid Section, elset=All, material=Inco
,
*End Part
**  
**
** ASSEMBLY
**
*Assembly, name=Assembly
**  
*Instance, name=Disk-1, part=Disk
*End Instance
**  
*End Assembly
*Amplitude, name=Temp_Cycling
             0.,              0.,            100.,              0.,            101.,            440.,            281.,            440.
           284.,              0.,           1884.,              0.,           1885.,            440.,           2065.,            440.
          2068.,              0.,           3668.,              0.,           3669.,            440.,           3849.,            440.
          3852.,              0.,           5452.,              0.,           5453.,            440.,           5633.,            440.
          5636.,              0.,           7236.,              0.,           7237.,            440.,           7417.,            440.
          7420.,              0.,           9020.,              0.,           9021.,            440.,           9201.,            440.
          9204.,              0.,          10804.,              0.,          10805.,            440.,          10985.,            440.
         10988.,              0.,          12588.,              0.,          12589.,            440.,          12769.,            440.
         12772.,              0.,          14372.,              0.,          14373.,            440.,          14553.,            440.
         14556.,              0.,          16156.,              0.,          16157.,            440.,          16337.,            440.
         16340.,              0.,          17940.,              0.
*Amplitude, name=rotation_ramp
             0.,              0.,            100.,              1.
** 
** MATERIALS
** 
*Material, name=Inco
*Conductivity
 21.9771,
*Density
 8110.33,
*Elastic
 2.03947e+11, 0.3
*Expansion
 1.42e-05,
*Plastic
 8.85669e+08,0.
*Specific Heat
 511.261,
*Time Points, name=OutputTimePoints
100., 281., 1884., 2065., 3668., 3849., 5452., 5633.
7236., 7417., 9020., 9201., 10804., 10985., 12588., 12769.
14372., 14553., 16156., 16337., 17940.
** 
** BOUNDARY CONDITIONS
** 
** Name: Left_radial Type: Displacement/Rotation
*Boundary
Disk-1.Left, 1, 1
Disk-1.Left, 6, 6
** Name: Y_symm Type: Symmetry/Antisymmetry/Encastre
*Boundary
Disk-1.Bottom, YSYMM
** 
** PREDEFINED FIELDS
** 
** Name: InitialTempField   Type: Temperature
*Initial Conditions, type=TEMPERATURE
Disk-1.All, 0.
** ----------------------------------------------------------------
** 
** STEP: StepAll
** 
*Step, name=StepAll, nlgeom=YES, inc=10000000
*Coupled Temperature-displacement, creep=none
1., 17940., 
** 
** BOUNDARY CONDITIONS
** 
** Name: Temp_Left Type: Temperature
*Boundary
Disk-1.Left, 11, 11
** Name: Temp_Right Type: Temperature
*Boundary, amplitude=Temp_Cycling
Disk-1.Right, 11, 11, 1.
** 
** LOADS
** 
** Name: Centrifugal   Type: Rotational body force
*Dload, amplitude=rotation_ramp
Disk-1.All, CENTRIF, 6.25e+06,0.,0.,0.,0.0,1.0,0.0
** 
** OUTPUT REQUESTS
** 
*Restart, write, frequency=0
** 
** FIELD OUTPUT: F-Output-1
** 
*Output, field
*Node Output
NT, U
*Element Output, directions=YES
MISES, PEEQ
*Output, history, frequency=0
*End Step
