*Heading
** Job name: 2500_100 Model name: Inco_fine_fixed1s
** Generated by: Abaqus/CAE 2024
*Preprint, echo=NO, model=NO, history=NO, contact=NO
**
** PARTS
**
*Part, name=Disk
*Node
      1, 0.00685000001,           0.
      2, 0.00685000001, 0.00100000005
      3, 0.00540000014, 0.00100000005
      4, 0.00540000014,           0.
      5, 0.00829999987,           0.
      6, 0.00829999987, 0.00100000005
      7, 0.0097500002,           0.
      8, 0.0097500002, 0.00100000005
      9, 0.0111999996,           0.
     10, 0.0111999996, 0.00100000005
     11, 0.0126499999,           0.
     12, 0.0126499999, 0.00100000005
     13, 0.0141000003,           0.
     14, 0.0141000003, 0.00100000005
     15, 0.0155499997,           0.
     16, 0.0155499997, 0.00100000005
     17, 0.0170000009,           0.
     18, 0.0170000009, 0.00100000005
     19, 0.0184499994,           0.
     20, 0.0184499994, 0.00100000005
** ... 1201 like lines cut
*Element, type=CPS3
 1,   1, 203, 916
 2, 916, 216,   1
 3, 203,   2, 204
 4, 204, 916, 203
 5, 216, 916, 917
 6, 917, 215, 216
 7, 916, 204, 205
 8, 205, 917, 916
 9, 215, 917, 918
10, 918, 214, 215
11, 917, 205, 206
12, 206, 918, 917
13, 214, 918, 919
14, 919, 213, 214
15, 918, 206, 207
16, 207, 919, 918
17, 213, 919, 920
18, 920, 212, 213
19, 919, 207, 208
20, 208, 920, 919
** ... 1604 like lines cut
*Nset, nset=Left
   3,   4, 210
*Elset, elset=Left
 26, 28
*Nset, nset=Right
 199, 200, 896
*Elset, elset=Right
 1590, 1592
*Nset, nset=Bottom
   1,   4,   5,   7,   9,  11,  13,  15,  17,  19,  21,  23,  25,  27,  29,  31
  33,  35,  37,  39,  41,  43,  45,  47,  49,  51,  53,  55,  57,  59,  61,  63
  65,  67,  69,  71,  73,  75,  77,  79,  81,  83,  85,  87,  89,  91,  93,  95
  97,  99, 101, 103, 105, 107, 109, 111, 113, 115, 117, 119, 121, 123, 125, 127
 129, 131, 133, 135, 137, 139, 141, 143, 145, 147, 149, 151, 153, 155, 157, 159
 161, 163, 165, 167, 169, 171, 173, 175, 177, 179, 181, 183, 185, 187, 189, 191
 193, 195, 198, 199, 201, 211, 212, 213, 214, 215, 216, 221, 222, 223, 224, 225
 226, 235, 236, 237, 238, 239, 240, 249, 250, 251, 252, 253, 254, 263, 264, 265
 266, 267, 268, 277, 278, 279, 280, 281, 282, 291, 292, 293, 294, 295, 296, 305
 306, 307, 308, 309, 310, 319, 320, 321, 322, 323, 324, 333, 334, 335, 336, 337
 338, 347, 348, 349, 350, 351, 352, 361, 362, 363, 364, 365, 366, 375, 376, 377
 378, 379, 380, 389, 390, 391, 392, 393, 394, 403, 404, 405, 406, 407, 408, 417
 418, 419, 420, 421, 422, 431, 432, 433, 434, 435, 436, 445, 446, 447, 448, 449
 450, 459, 460, 461, 462, 463, 464, 473, 474, 475, 476, 477, 478, 487, 488, 489
 490, 491, 492, 501, 502, 503, 504, 505, 506, 515, 516, 517, 518, 519, 520, 529
 530, 531, 532, 533, 534, 543, 544, 545, 546, 547, 548, 557, 558, 559, 560, 561
 562, 571, 572, 573, 574, 575, 576, 585, 586, 587, 588, 589, 590, 599, 600, 601
 602, 603, 604, 613, 614, 615, 616, 617, 618, 627, 628, 629, 630, 631, 632, 641
 642, 643, 644, 645, 646, 655, 656, 657, 658, 659, 660, 669, 670, 671, 672, 673
 674, 683, 684, 685, 686, 687, 688, 697, 698, 699, 700, 701, 702, 711, 712, 713
** ... 6 like lines cut
*Elset, elset=Bottom
    2,    6,   10,   14,   18,   22,   26,   30,   34,   38,   42,   47,   51,   55,   59,   62
   66,   70,   74,   79,   83,   87,   91,   94,   98,  102,  106,  111,  115,  119,  123,  126
  130,  134,  138,  143,  147,  151,  155,  158,  162,  166,  170,  175,  179,  183,  187,  190
  194,  198,  202,  207,  211,  215,  219,  222,  226,  230,  234,  239,  243,  247,  251,  254
  258,  262,  266,  271,  275,  279,  283,  286,  290,  294,  298,  303,  307,  311,  315,  318
  322,  326,  330,  335,  339,  343,  347,  350,  354,  358,  362,  367,  371,  375,  379,  382
  386,  390,  394,  399,  403,  407,  411,  414,  418,  422,  426,  431,  435,  439,  443,  446
  450,  454,  458,  463,  467,  471,  475,  478,  482,  486,  490,  495,  499,  503,  507,  510
  514,  518,  522,  527,  531,  535,  539,  542,  546,  550,  554,  559,  563,  567,  571,  574
  578,  582,  586,  591,  595,  599,  603,  606,  610,  614,  618,  623,  627,  631,  635,  638
  642,  646,  650,  655,  659,  663,  667,  670,  674,  678,  682,  687,  691,  695,  699,  702
  706,  710,  714,  719,  723,  727,  731,  734,  738,  742,  746,  751,  755,  759,  763,  766
  770,  774,  778,  783,  787,  791,  795,  798,  802,  806,  810,  815,  819,  823,  827,  830
  834,  838,  842,  847,  851,  855,  859,  862,  866,  870,  874,  879,  883,  887,  891,  894
  898,  902,  906,  911,  915,  919,  923,  926,  930,  934,  938,  943,  947,  951,  955,  958
  962,  966,  970,  975,  979,  983,  987,  990,  994,  998, 1002, 1007, 1011, 1015, 1019, 1022
 1026, 1030, 1034, 1039, 1043, 1047, 1051, 1054, 1058, 1062, 1066, 1071, 1075, 1079, 1083, 1086
 1090, 1094, 1098, 1103, 1107, 1111, 1115, 1118, 1122, 1126, 1130, 1135, 1139, 1143, 1147, 1150
 1154, 1158, 1162, 1167, 1171, 1175, 1179, 1182, 1186, 1190, 1194, 1199, 1203, 1207, 1211, 1214
 1218, 1222, 1226, 1231, 1235, 1239, 1243, 1246, 1250, 1254, 1258, 1263, 1267, 1271, 1275, 1278
** ... 6 like lines cut
*Nset, nset=All, generate
    1,  1221,     1
*Elset, elset=All, generate
    1,  1624,     1
*Elset, elset=CritEle1, generate
 13,  28,   1
*Elset, elset=CritEle2, generate
 1577,  1592,     1
** Section: Sec_Inco
*Solid Section, elset=All, material=Inco
,
*End Part
**  
**
** ASSEMBLY
**
*Assembly, name=Assembly
**  
*Instance, name=Disk-1, part=Disk
*End Instance
**  
*End Assembly
*Amplitude, name=Temp_Cycling
           100.,              0.,            101.,            100.,            121.,            100.,            124.,              0.
           724.,              0.,            725.,            100.,            745.,            100.,            748.,              0.
          1348.,              0.,           1349.,            100.,           1369.,            100.,           1372.,              0.
          1972.,              0.,           1973.,            100.,           1993.,            100.,           1996.,              0.
          2596.,              0.,           2597.,            100.,           2617.,            100.,           2620.,              0.
          3220.,              0.,           3221.,            100.,           3241.,            100.,           3244.,              0.
          3844.,              0.,           3845.,            100.,           3865.,            100.,           3868.,              0.
          4468.,              0.,           4469.,            100.,           4489.,            100.,           4492.,              0.
          5092.,              0.,           5093.,            100.,           5113.,            100.,           5116.,              0.
          5716.,              0.,           5717.,            100.,           5737.,            100.,           5740.,              0.
          6340.,              0.,           6341.,            100.,           6361.,            100.,           6364.,              0.
          6964.,              0.,           6965.,            100.,           6985.,            100.,           6988.,              0.
          7588.,              0.,           7589.,            100.,           7609.,            100.,           7612.,              0.
          8212.,              0.,           8213.,            100.,           8233.,            100.,           8236.,              0.
          8836.,              0.,           8837.,            100.,           8857.,            100.,           8860.,              0.
          9460.,              0.,           9461.,            100.,           9481.,            100.,           9484.,              0.
         10084.,              0.,          10085.,            100.,          10105.,            100.,          10108.,              0.
         10708.,              0.,          10709.,            100.,          10729.,            100.,          10732.,              0.
         11332.,              0.,          11333.,            100.,          11353.,            100.,          11356.,              0.
         11956.,              0.,          11957.,            100.,          11977.,            100.,          11980.,              0.
** ... 11 like lines cut
*Amplitude, name=rotation_ramp
             0.,              0.,            100.,              1.,          18820.,              1.
** 
** MATERIALS
** 
*Material, name=Inco
*Conductivity
 21.9771,
*Density
 8110.33,
*Elastic
 2.03947e+11, 0.3
*Expansion
 1.42e-05,
*Plastic
 8.85669e+08,0.
*Specific Heat
 511.261,
*Time Points, name=OutputTimePoints
100., 121., 724., 745., 1348., 1369., 1972., 1993.
2596., 2617., 3220., 3241., 3844., 3865., 4468., 4489.
5092., 5113., 5716., 5737., 6340., 6361., 6964., 6985.
7588., 7609., 8212., 8233., 8836., 8857., 9460., 9481.
10084., 10105., 10708., 10729., 11332., 11353., 11956., 11977.
12580., 12601., 13204., 13225., 13828., 13849., 14452., 14473.
15076., 15097., 15700., 15721., 16324., 16345., 16948., 16969.
17572., 17593., 18196., 18217., 18820.
** 
** BOUNDARY CONDITIONS
** 
** Name: Left_radial Type: Displacement/Rotation
*Boundary
Disk-1.Left, 1, 1
Disk-1.Left, 6, 6
** Name: Y_symm Type: Symmetry/Antisymmetry/Encastre
*Boundary
Disk-1.Bottom, YSYMM
** 
** PREDEFINED FIELDS
** 
** Name: InitialTempField   Type: Temperature
*Initial Conditions, type=TEMPERATURE
Disk-1.All, 0.
** ----------------------------------------------------------------
** 
** STEP: StepAll
** 
*Step, name=StepAll, nlgeom=YES, inc=10000000
*Coupled Temperature-displacement, creep=none
1., 18820., 
** 
** BOUNDARY CONDITIONS
** 
** Name: Temp_Left Type: Temperature
*Boundary
Disk-1.Left, 11, 11
** Name: Temp_Right Type: Temperature
*Boundary, amplitude=Temp_Cycling
Disk-1.Right, 11, 11, 1.
** 
** LOADS
** 
** Name: Centrifugal   Type: Rotational body force
*Dload, amplitude=rotation_ramp
Disk-1.All, CENTRIF, 6.25e+06,0.,0.,0.,0.0,1.0,0.0
** 
** OUTPUT REQUESTS
** 
*Restart, write, frequency=0
** 
** FIELD OUTPUT: F-Output-1
** 
*Output, field
*Node Output
NT, U
*Element Output, directions=YES
MISES, PEEQ
*Output, history, frequency=0
*End Step
